 .ops file Watershed HRU:13 Subbasin:13 HRU:1 Luse:PAST Soil: TX620 Slope 0-2 4/26/2017 12:00:00 AM ArcSWAT 2012.10_0.14
 10  1     2009 10    1       0.00     90.00000  90.00                90.00  90.00
